ELEMENTS  
H   N   O   HE
END
SPECIES   
H   H2  O   O2   OH   H2O   N2   HO2    H2O2   HE
END
REACTIONS   MOLES  KELVINS                                                      
H+O2<=>O+OH                  9.7676E+012 0.284939292 7222.49581
O+H2<=>H+OH                  2.5452E+004 2.753846759 3189.20081
OH+H2<=>H+H2O                3.1491E+007 1.754269775 1632.70369
2OH<=>O+H2O                    3.442E+04      2.2956   -1764.74
2H+M<=>H2+M                    2.142E+19     -1.4781     133.32
 H2/2.5/ H2O/12/ HE/0.83/
2O+M<=>O2+M                    6.165E+15     -0.5000       0.00
H2/2.5/ H2O/12/ HE/0.83/
O+H+M<=>OH+M                   4.714E+18     -1.0000       0.00
H2/2.5/ H2O/12/ HE/0.75/
H+OH+M<=>H2O+M               1.0477E+024 -2.56424887 -65.650240
H2/2.5/ H2O/12/ HE/0.38/
H+O2(+M)<=>HO2(+M)             4.650E+12      0.4400       0.00
LOW                  /       1.5863E+019 -1.21156686       0.00     /
TROE                 /         6.700E-01     1.0E-30    1.0E+30    1.0E+30 /
H2/1.351725400243/ HE/0.65/ H2O/11.88291796198/
H+HO2<=>H2+O2                2.0008E+010 1.015936101 330.367459
HO2+H<=>2OH                  7.3275E+013      0.0000 151.658640
HO2+O<=>OH+O2                  3.250E+13      0.0000       0.00
HO2+OH<=>H2O+O2              6.1655E+008 1.345264188 -1026.7890
2HO2<=>H2O2+O2                 1.300E+11      0.0000    -820.33
DUPLICATE                                    
2HO2<=>H2O2+O2               1.2466E+014      0.0000 5266.67658
DUPLICATE                                    
2OH(+M)<=>H2O2(+M)             2.148E+05      2.3219   -1712.31
LOW                  /       2.7758E+014  0.05525603 -2357.4490     /
TROE                 /         4.300E-01     1.0E-30    1.0E+30    1.0E+30 /
H2O/5/ O2/0.8/ HE/0.43/ H2O2/5.13/ H2/2.47/
H2O2+H<=>H2O+OH                2.410E+13      0.0000    1997.99
H2O2+H<=>H2+HO2              2.0231E+018 -1.47795694 3882.99578
H2O2+O<=>OH+HO2                9.550E+06      2.0000    1997.99
H2O2+OH<=>H2O+HO2              1.740E+12      0.0000     160.04
DUPLICATE
H2O2+OH<=>H2O+HO2              7.590E+13      0.0000    3658.28
DUPLICATE
END
